Version 4
SHEET 1 1996 680
WIRE 288 -176 160 -176
WIRE 400 -176 368 -176
WIRE 432 -176 400 -176
WIRE 544 -176 512 -176
WIRE 1264 -176 1136 -176
WIRE 1376 -176 1344 -176
WIRE 1408 -176 1376 -176
WIRE 1520 -176 1488 -176
WIRE 160 -144 160 -176
WIRE 1136 -144 1136 -176
WIRE 288 -80 256 -80
WIRE 400 -80 400 -176
WIRE 400 -80 368 -80
WIRE 160 -48 160 -64
WIRE 256 -48 256 -80
WIRE 1136 -48 1136 -64
WIRE 400 -16 400 -80
WIRE 432 -16 400 -16
WIRE 1376 -16 1376 -176
WIRE 1408 -16 1376 -16
WIRE 544 0 544 -176
WIRE 544 0 496 0
WIRE 608 0 544 0
WIRE 752 0 688 0
WIRE 848 0 752 0
WIRE 1520 0 1520 -176
WIRE 1520 0 1472 0
WIRE 1584 0 1520 0
WIRE 1728 0 1664 0
WIRE 1824 0 1728 0
WIRE 432 16 128 16
WIRE 1264 16 1104 16
WIRE 1408 16 1344 16
WIRE 752 32 752 0
WIRE 1728 32 1728 0
WIRE 128 64 128 16
WIRE 1104 64 1104 16
WIRE 752 144 752 112
WIRE 1728 144 1728 112
WIRE 128 208 128 144
WIRE 1104 208 1104 144
WIRE 0 0 0 0
FLAG 128 208 0
FLAG 128 16 TRI-RAW
FLAG 256 -48 0
FLAG 752 144 0
FLAG 160 -48 0
FLAG 848 0 TRI-OUT
IOPIN 848 0 Out
FLAG 1104 208 0
FLAG 1104 16 SAW-RAW
FLAG 1728 144 0
FLAG 1136 -48 0
FLAG 1824 0 SAW-OUT
IOPIN 1824 0 Out
SYMBOL voltage 128 48 R0
WINDOW 123 0 0 Left 0
WINDOW 39 0 0 Left 0
SYMATTR InstName V1
SYMATTR Value SINE(2.5 2.5 440 0 0 0)
SYMBOL Opamps\\opamp 464 -64 R0
SYMATTR InstName U1
SYMBOL res 384 -96 R90
WINDOW 0 0 56 VBottom 2
WINDOW 3 32 56 VTop 2
SYMATTR InstName R1
SYMATTR Value 10k
SYMBOL res 384 -192 R90
WINDOW 0 0 56 VBottom 2
WINDOW 3 32 56 VTop 2
SYMATTR InstName R2
SYMATTR Value 30k
SYMBOL res 528 -192 R90
WINDOW 0 0 56 VBottom 2
WINDOW 3 32 56 VTop 2
SYMATTR InstName R3
SYMATTR Value 15k
SYMBOL res 704 -16 R90
WINDOW 0 0 56 VBottom 2
WINDOW 3 32 56 VTop 2
SYMATTR InstName R4
SYMATTR Value 1.5k
SYMBOL res 768 128 R180
WINDOW 0 36 76 Left 2
WINDOW 3 36 40 Left 2
SYMATTR InstName R5
SYMATTR Value 3k
SYMBOL voltage 160 -160 R0
WINDOW 123 0 0 Left 0
WINDOW 39 0 0 Left 0
SYMATTR InstName V2
SYMATTR Value 15
SYMBOL voltage 1104 48 R0
WINDOW 123 0 0 Left 0
WINDOW 39 0 0 Left 0
SYMATTR InstName V3
SYMATTR Value SINE(5 5 440 0 0 0)
SYMBOL Opamps\\opamp 1440 -64 R0
SYMATTR InstName U2
SYMBOL res 1360 -192 R90
WINDOW 0 0 56 VBottom 2
WINDOW 3 32 56 VTop 2
SYMATTR InstName R7
SYMATTR Value 20k
SYMBOL res 1504 -192 R90
WINDOW 0 0 56 VBottom 2
WINDOW 3 32 56 VTop 2
SYMATTR InstName R8
SYMATTR Value 10k
SYMBOL res 1680 -16 R90
WINDOW 0 0 56 VBottom 2
WINDOW 3 32 56 VTop 2
SYMATTR InstName R9
SYMATTR Value 1.5k
SYMBOL res 1744 128 R180
WINDOW 0 36 76 Left 2
WINDOW 3 36 40 Left 2
SYMATTR InstName R10
SYMATTR Value 3k
SYMBOL voltage 1136 -160 R0
WINDOW 123 0 0 Left 0
WINDOW 39 0 0 Left 0
SYMATTR InstName V4
SYMATTR Value 15
SYMBOL res 1360 0 R90
WINDOW 0 0 56 VBottom 2
WINDOW 3 32 56 VTop 2
SYMATTR InstName R6
SYMATTR Value 10k
TEXT 96 -240 Left 2 !.tran 0.1
TEXT 96 -264 Left 2 !.lib opamp.sub
